Circuit: * D:\LT - spice\Projects\Draft2.asc

Direct Newton iteration failed to find .op point.  (Use ".option noopiter" to skip.)
Starting Gmin stepping
Gmin = 10
Gmin = 1.07374
Gmin = 0.115292
Gmin = 0.0123794
Gmin = 0.00132923
Gmin = 0.000142725
vernier = 0.5
vernier = 0.25
vernier = 0.125
vernier = 0.0625
Gmin = 4.67681e-005
vernier = 0.03125
vernier = 0.015625
vernier = 0.0078125
vernier = 0.00390625
vernier = 0.00195313
vernier = 0.000976563
vernier = 0.000488281
Gmin = 0
Gmin stepping failed

Starting source stepping with srcstepmethod=0
Source Step = 3.0303%
Source Step = 33.3333%
Source Step = 63.6364%
Source Step = 75.7605%
Starting source stepping with srcstepmethod=1
Source Step = 3.0303%
Source Step = 33.3333%
Source Step = 58.3333%
vernier = 0.0625
Source Step = 57.996%
Source stepping failed

Pseudo Transient failed in finding the operating point at 4.73628 ms.
Trouble finding operating point....skipping operating point for Transient analysis.
Ignoring empty pin current: Ix(u1:vdd)
Changing Tseed to 1e-009

Date: Wed Mar 30 11:10:44 2022
Total elapsed time: 0.825 seconds.

tnom = 27
temp = 27
method = modified trap
totiter = 403891
traniter = 4503
tranpoints = 1501
accept = 1185
rejected = 11744
matrix size = 14
fillins = 1
solver = Normal
Matrix Compiler1: 402 bytes object code size  0.1/0.1/[0.0]
Matrix Compiler2: off  [0.1]/0.1/0.3

