Circuit: * D:\LT - spice\Projects\Draft1.asc

Direct Newton iteration for .op point succeeded.

Date: Sun Mar 27 23:08:15 2022
Total elapsed time: 0.280 seconds.

tnom = 27
temp = 27
method = modified trap
totiter = 25361
traniter = 25353
tranpoints = 11046
accept = 10803
rejected = 243
matrix size = 14
fillins = 0
solver = Normal
Matrix Compiler1: 384 bytes object code size  0.2/0.1/[0.0]
Matrix Compiler2: off  [0.1]/0.2/0.2

