Circuit: * D:\LT - spice\Projects\LM555.asc

Direct Newton iteration for .op point succeeded.

Date: Mon Mar 28 00:21:46 2022
Total elapsed time: 0.366 seconds.

tnom = 27
temp = 27
method = modified trap
totiter = 25361
traniter = 25353
tranpoints = 11046
accept = 10803
rejected = 243
matrix size = 14
fillins = 0
solver = Normal
Matrix Compiler1: 384 bytes object code size  0.5/0.2/[0.1]
Matrix Compiler2: off  [0.2]/0.4/0.3

