Circuit: * D:\LT - spice\Projects\Two_Phase_Clock_Generator.asc

Direct Newton iteration failed to find .op point.  (Use ".option noopiter" to skip.)
Starting Gmin stepping
Gmin = 10
Gmin = 1.07374
Gmin = 0.115292
Gmin = 0.0123794
Gmin = 0.00132923
Gmin = 0.000142725
vernier = 0.5
vernier = 0.25
vernier = 0.125
vernier = 0.0625
vernier = 0.03125
vernier = 0.015625
vernier = 0.0078125
vernier = 0.00390625
Gmin = 0.00011418
vernier = 0.00195313
vernier = 0.000976563
vernier = 0.000488281
Gmin = 0
Gmin stepping failed

Starting source stepping with srcstepmethod=0
Source Step = 3.0303%
Source Step = 33.3333%
Source Step = 63.6364%
Source Step = 69.7058%
Starting source stepping with srcstepmethod=1
Source Step = 3.0303%
Source Step = 33.3333%
Source Step = 50.1894%
vernier = 0.015625
Source stepping aborted.
Pseudo Transient failed in finding the operating point at 104.819 µs.
Trouble finding operating point....skipping operating point for Transient analysis.
Ignoring empty pin current: Ix(u1:vdd)
Ignoring empty pin current: Ix(u2:vdd)
Ignoring empty pin current: Ix(u3:vdd)
Ignoring empty pin current: Ix(u4:vdd)
Ignoring empty pin current: Ix(u5:vdd)
Ignoring empty pin current: Ix(u6:vdd)
Ignoring empty pin current: Ix(u7:vdd)
Ignoring empty pin current: Ix(u8:vdd)
Ignoring empty pin current: Ix(u9:vdd)
Ignoring empty pin current: Ix(u10:vdd)
Ignoring empty pin current: Ix(u11:vdd)
Ignoring empty pin current: Ix(u12:vdd)
Ignoring empty pin current: Ix(u13:vdd)
Ignoring empty pin current: Ix(u14:vdd)
Ignoring empty pin current: Ix(u15:vdd)
Ignoring empty pin current: Ix(u16:vdd)
Ignoring empty pin current: Ix(u17:vdd)
Ignoring empty pin current: Ix(u18:vdd)
Ignoring empty pin current: Ix(u19:vdd)
Ignoring empty pin current: Ix(u20:vdd)
Ignoring empty pin current: Ix(u21:vdd)
Ignoring empty pin current: Ix(u22:vdd)
Ignoring empty pin current: Ix(u23:vdd)
Ignoring empty pin current: Ix(u24:vdd)
Ignoring empty pin current: Ix(u25:vdd)
Ignoring empty pin current: Ix(u26:vdd)
Ignoring empty pin current: Ix(u27:vdd)
Ignoring empty pin current: Ix(u28:vdd)
Ignoring empty pin current: Ix(u29:vdd)
Ignoring empty pin current: Ix(u30:vdd)

Date: Fri Mar 25 19:39:35 2022
Total elapsed time: 5.870 seconds.

tnom = 27
temp = 27
method = modified trap
totiter = 66466
traniter = 16390
tranpoints = 7473
accept = 5964
rejected = 1552
matrix size = 278
fillins = 28
solver = Normal
Thread vector: 28.7/21.6[4] 9.9/8.4[3] 6.4/11.6[1] 1.1/2.7[1]  2592/500
Matrix Compiler1: 7.17 KB object code size  4.2/2.2/[1.4]
Matrix Compiler2: 15.04 KB object code size  2.4/4.0/[2.5]

